169945
  -OEChem-09091216212D

 64 63  0     1  0  0  0  0  0999 V2000
    3.0000    6.5600    0.0000 Cl  0  0  0  0  0  0  0  0  0  0  0  0
    0.0000    6.5600    0.0000 Cl  0  0  0  0  0  0  0  0  0  0  0  0
    8.4860   12.3100    0.0000 O   0  0  0  0  0  0  0  0  0  0  0  0
    8.4860    1.3100    0.0000 O   0  0  0  0  0  0  0  0  0  0  0  0
    8.4860    9.3100    0.0000 N   0  0  3  0  0  0  0  0  0  0  0  0
    8.4860    4.3100    0.0000 N   0  0  3  0  0  0  0  0  0  0  0  0
    7.6200    9.8100    0.0000 C   0  0  0  0  0  0  0  0  0  0  0  0
    9.3520    3.8100    0.0000 C   0  0  0  0  0  0  0  0  0  0  0  0
    9.3520    2.8100    0.0000 C   0  0  0  0  0  0  0  0  0  0  0  0
    7.6200   10.8100    0.0000 C   0  0  0  0  0  0  0  0  0  0  0  0
    7.6200    2.8100    0.0000 C   0  0  3  0  0  0  0  0  0  0  0  0
    9.3520   10.8100    0.0000 C   0  0  3  0  0  0  0  0  0  0  0  0
    8.4860   11.3100    0.0000 C   0  0  3  0  0  0  0  0  0  0  0  0
    8.4860    2.3100    0.0000 C   0  0  3  0  0  0  0  0  0  0  0  0
    7.6200    3.8100    0.0000 C   0  0  0  0  0  0  0  0  0  0  0  0
    9.3520    9.8100    0.0000 C   0  0  0  0  0  0  0  0  0  0  0  0
   10.3521    3.8100    0.0000 C   0  0  0  0  0  0  0  0  0  0  0  0
    9.8520    4.6760    0.0000 C   0  0  0  0  0  0  0  0  0  0  0  0
    6.6200    9.8100    0.0000 C   0  0  0  0  0  0  0  0  0  0  0  0
    7.1200    8.9440    0.0000 C   0  0  0  0  0  0  0  0  0  0  0  0
    6.7540    2.3100    0.0000 C   0  0  0  0  0  0  0  0  0  0  0  0
   10.2181   11.3100    0.0000 C   0  0  0  0  0  0  0  0  0  0  0  0
    8.4860    8.3100    0.0000 C   0  0  0  0  0  0  0  0  0  0  0  0
    8.4860    5.3100    0.0000 C   0  0  0  0  0  0  0  0  0  0  0  0
    8.4860    6.3100    0.0000 C   0  0  0  0  0  0  0  0  0  0  0  0
    8.4860    7.3100    0.0000 C   0  0  0  0  0  0  0  0  0  0  0  0
    7.6200   12.8100    0.0000 C   0  0  0  0  0  0  0  0  0  0  0  0
    9.3520    0.8100    0.0000 C   0  0  0  0  0  0  0  0  0  0  0  0
    6.7540   13.3100    0.0000 C   0  0  0  0  0  0  0  0  0  0  0  0
   10.2181    0.3100    0.0000 C   0  0  0  0  0  0  0  0  0  0  0  0
    9.5641    2.2274    0.0000 H   0  0  0  0  0  0  0  0  0  0  0  0
    9.9626    2.9177    0.0000 H   0  0  0  0  0  0  0  0  0  0  0  0
    7.4080   11.3926    0.0000 H   0  0  0  0  0  0  0  0  0  0  0  0
    7.0094   10.7023    0.0000 H   0  0  0  0  0  0  0  0  0  0  0  0
    7.0831    3.1200    0.0000 H   0  0  0  0  0  0  0  0  0  0  0  0
    9.3520   11.4300    0.0000 H   0  0  0  0  0  0  0  0  0  0  0  0
    9.0230    2.0000    0.0000 H   0  0  0  0  0  0  0  0  0  0  0  0
    9.0230   11.6200    0.0000 H   0  0  0  0  0  0  0  0  0  0  0  0
    7.4080    4.3926    0.0000 H   0  0  0  0  0  0  0  0  0  0  0  0
    7.0094    3.7023    0.0000 H   0  0  0  0  0  0  0  0  0  0  0  0
    9.5641    9.2274    0.0000 H   0  0  0  0  0  0  0  0  0  0  0  0
    9.9626    9.9177    0.0000 H   0  0  0  0  0  0  0  0  0  0  0  0
    6.6200   10.4300    0.0000 H   0  0  0  0  0  0  0  0  0  0  0  0
    6.0000    9.8100    0.0000 H   0  0  0  0  0  0  0  0  0  0  0  0
    6.6200    9.1900    0.0000 H   0  0  0  0  0  0  0  0  0  0  0  0
    6.5831    9.2540    0.0000 H   0  0  0  0  0  0  0  0  0  0  0  0
    6.8100    8.4070    0.0000 H   0  0  0  0  0  0  0  0  0  0  0  0
    7.6569    8.6340    0.0000 H   0  0  0  0  0  0  0  0  0  0  0  0
   10.3890    4.3660    0.0000 H   0  0  0  0  0  0  0  0  0  0  0  0
   10.1621    5.2130    0.0000 H   0  0  0  0  0  0  0  0  0  0  0  0
    9.3151    4.9860    0.0000 H   0  0  0  0  0  0  0  0  0  0  0  0
   10.3521    3.1900    0.0000 H   0  0  0  0  0  0  0  0  0  0  0  0
   10.9721    3.8100    0.0000 H   0  0  0  0  0  0  0  0  0  0  0  0
   10.3521    4.4300    0.0000 H   0  0  0  0  0  0  0  0  0  0  0  0
   10.5281   10.7731    0.0000 H   0  0  0  0  0  0  0  0  0  0  0  0
   10.7550   11.6200    0.0000 H   0  0  0  0  0  0  0  0  0  0  0  0
    9.9081   11.8469    0.0000 H   0  0  0  0  0  0  0  0  0  0  0  0
    6.4440    2.8469    0.0000 H   0  0  0  0  0  0  0  0  0  0  0  0
    6.2170    2.0000    0.0000 H   0  0  0  0  0  0  0  0  0  0  0  0
    7.0640    1.7731    0.0000 H   0  0  0  0  0  0  0  0  0  0  0  0
    6.2170   13.6200    0.0000 H   0  0  0  0  0  0  0  0  0  0  0  0
   10.7550    0.0000    0.0000 H   0  0  0  0  0  0  0  0  0  0  0  0
    1.0000    6.5600    0.0000 H   0  0  0  0  0  0  0  0  0  0  0  0
    4.0000    6.5600    0.0000 H   0  0  0  0  0  0  0  0  0  0  0  0
  1 64  1  0  0  0  0
  2 63  1  0  0  0  0
  3 13  1  0  0  0  0
  3 27  1  0  0  0  0
  4 14  1  0  0  0  0
  4 28  1  0  0  0  0
  5  7  1  0  0  0  0
  5 16  1  0  0  0  0
  5 23  1  0  0  0  0
  6  8  1  0  0  0  0
  6 15  1  0  0  0  0
  6 24  1  0  0  0  0
  7 10  1  0  0  0  0
  7 19  1  0  0  0  0
  7 20  1  0  0  0  0
  8  9  1  0  0  0  0
  8 17  1  0  0  0  0
  8 18  1  0  0  0  0
  9 14  1  0  0  0  0
  9 31  1  0  0  0  0
  9 32  1  0  0  0  0
 10 13  1  0  0  0  0
 10 33  1  0  0  0  0
 10 34  1  0  0  0  0
 11 14  1  0  0  0  0
 11 15  1  0  0  0  0
 11 21  1  0  0  0  0
 11 35  1  0  0  0  0
 12 13  1  0  0  0  0
 12 16  1  0  0  0  0
 12 22  1  0  0  0  0
 12 36  1  0  0  0  0
 13 38  1  0  0  0  0
 14 37  1  0  0  0  0
 15 39  1  0  0  0  0
 15 40  1  0  0  0  0
 16 41  1  0  0  0  0
 16 42  1  0  0  0  0
 17 52  1  0  0  0  0
 17 53  1  0  0  0  0
 17 54  1  0  0  0  0
 18 49  1  0  0  0  0
 18 50  1  0  0  0  0
 18 51  1  0  0  0  0
 19 43  1  0  0  0  0
 19 44  1  0  0  0  0
 19 45  1  0  0  0  0
 20 46  1  0  0  0  0
 20 47  1  0  0  0  0
 20 48  1  0  0  0  0
 21 58  1  0  0  0  0
 21 59  1  0  0  0  0
 21 60  1  0  0  0  0
 22 55  1  0  0  0  0
 22 56  1  0  0  0  0
 22 57  1  0  0  0  0
 23 26  3  0  0  0  0
 24 25  3  0  0  0  0
 25 26  1  0  0  0  0
 27 29  3  0  0  0  0
 28 30  3  0  0  0  0
 29 61  1  0  0  0  0
 30 62  1  0  0  0  0
M  END
> <PUBCHEM_COMPOUND_CID>
169945

> <PUBCHEM_COMPOUND_CANONICALIZED>
1

> <PUBCHEM_CACTVS_COMPLEXITY>
740

> <PUBCHEM_CACTVS_HBOND_ACCEPTOR>
4

> <PUBCHEM_CACTVS_HBOND_DONOR>
2

> <PUBCHEM_CACTVS_ROTATABLE_BOND>
7

> <PUBCHEM_CACTVS_SUBSKEYS>
AAADcfB7MAAGAAAAAAAAAAAAAAAAAAAAAAAsWAAAAAAAAAAAAAAAHgAAAAAADZzhgAYCAAMABABAGAAAAAAAAAAAAAAAAAAIAAAAAAIAgAAEAAAGAACAAAEQAAAMAAAAAAAAAAAAAAAAAAAAAAAAAAAAAA==

> <PUBCHEM_IUPAC_OPENEYE_NAME>
4-ethynoxy-1-[4-(4-ethynoxy-2,2,5-trimethyl-1-piperidyl)buta-1,3-diynyl]-2,2,5-trimethyl-piperidine dihydrochloride

> <PUBCHEM_IUPAC_CAS_NAME>
4-ethynoxy-1-[4-(4-ethynoxy-2,2,5-trimethyl-1-piperidinyl)buta-1,3-diynyl]-2,2,5-trimethylpiperidine dihydrochloride

> <PUBCHEM_IUPAC_NAME>
4-ethynoxy-1-[4-(4-ethynoxy-2,2,5-trimethylpiperidin-1-yl)buta-1,3-diynyl]-2,2,5-trimethylpiperidine dihydrochloride

> <PUBCHEM_IUPAC_SYSTEMATIC_NAME>
4-ethynoxy-1-[4-(4-ethynoxy-2,2,5-trimethyl-piperidin-1-yl)buta-1,3-diynyl]-2,2,5-trimethyl-piperidine dihydrochloride

> <PUBCHEM_IUPAC_TRADITIONAL_NAME>
4-ethynoxy-1-[4-(4-ethynoxy-2,2,5-trimethyl-piperidino)buta-1,3-diynyl]-2,2,5-trimethyl-piperidine dihydrochloride

> <PUBCHEM_IUPAC_INCHI>
InChI=1S/C24H32N2O2.2ClH/c1-9-27-21-15-23(5,6)25(17-19(21)3)13-11-12-14-26-18-20(4)22(28-10-2)16-24(26,7)8;;/h1-2,19-22H,15-18H2,3-8H3;2*1H

> <PUBCHEM_IUPAC_INCHIKEY>
QADGMISMPFGCMC-UHFFFAOYSA-N

> <PUBCHEM_EXACT_MASS>
452.199734

> <PUBCHEM_MOLECULAR_FORMULA>
C24H34Cl2N2O2

> <PUBCHEM_MOLECULAR_WEIGHT>
453.44496

> <PUBCHEM_OPENEYE_CAN_SMILES>
CC1CN(C(CC1OC#C)(C)C)C#CC#CN2CC(C(CC2(C)C)OC#C)C.Cl.Cl

> <PUBCHEM_OPENEYE_ISO_SMILES>
CC1CN(C(CC1OC#C)(C)C)C#CC#CN2CC(C(CC2(C)C)OC#C)C.Cl.Cl

> <PUBCHEM_CACTVS_TPSA>
24.9

> <PUBCHEM_MONOISOTOPIC_WEIGHT>
452.199734

> <PUBCHEM_TOTAL_CHARGE>
0

> <PUBCHEM_HEAVY_ATOM_COUNT>
30

> <PUBCHEM_ATOM_DEF_STEREO_COUNT>
0

> <PUBCHEM_ATOM_UDEF_STEREO_COUNT>
4

> <PUBCHEM_BOND_DEF_STEREO_COUNT>
0

> <PUBCHEM_BOND_UDEF_STEREO_COUNT>
0

> <PUBCHEM_ISOTOPIC_ATOM_COUNT>
0

> <PUBCHEM_COMPONENT_COUNT>
3

> <PUBCHEM_CACTVS_TAUTO_COUNT>
1

> <PUBCHEM_COORDINATE_TYPE>
1
5
255

> <PUBCHEM_BONDANNOTATIONS>
11  21  3
12  22  3
13  3  3
14  4  3

$$$$
